src/tests/data/grids/DGS/test_reduced_spen_v10.dgs
********************************************************************************
*
* DIgSILENT (R) DGS Export V1.8.4
* Copyright 1997-2026 DIgSILENT GmbH. All rights reserved.
*
* DIgSILENT (C) PowerFactory V25.0.3.0
*
* Date:     05/06/2026 15:35
* Project:  Reduced_SPEN_v10 (Study Case: Y01 (2024/25))
*
********************************************************************************


$$General;FID(a:40);Descr(a:40);Val(a:255)
  1;Version;7.0


$$ChaRef;FID(a:40);OP(a:1);loc_name(a:80);fold_id(p)
  2;C;sline;1090
  3;C;ContRating;


$$ChaVec;FID(a:40);OP(a:1);loc_name(a:80);fold_id(p);scale(p);usage(i);approx(i);vector:SIZEROW(i);vector:0(r);vector:1(r);vector:2(r)
  4;C;sline;1091;;0;0;3;100;87,78195;87,78195
  5;C;sline;1092;;0;0;3;100;90,506;90,506
  6;C;sline;1080;;0;0;3;100;95,89;88,36
  7;C;sline;1081;;0;0;3;100;95,42;87,02
  8;C;sline;1082;;0;0;3;100;92,4;80,12
  9;C;sline;1083;;0;0;3;100;92,31;79,88
  10;C;ContRating;;;0;0;3;100;92,85714;80,35713
  11;C;ContRating;;;2;0;3;134;123;123
  12;C;ContRating;;;2;0;3;242;223;192
  13;C;ContRating;;;2;0;3;41;40;40
  14;C;ContRating;;;2;0;3;240;240;240
  15;C;ContRating;;;2;0;3;167;160;147
  16;C;ContRating;;;2;0;3;418;386;386
  17;C;ContRating;;;2;0;3;466;430;418
  18;C;ContRating;;;2;0;3;30,6;30,6;30,6
  19;C;ContRating;;;2;0;3;484;458;418
  20;C;ContRating;;;2;0;3;159;147;147
  21;C;ContRating;;;2;0;3;30;30;30
  22;C;ContRating;;;2;0;3;30;30;30
  23;C;ContRating;;;2;0;3;272;231;231
  24;C;ContRating;;;2;0;3;241;230;210
  25;C;ContRating;;;2;0;3;352;324,9;281,2


$$ElmBranch;FID(a:40);OP(a:1);loc_name(a:80);fold_id(p);iDatCon0(i);iDatCon1(i)
  26;C;br_BLAH1-_GLGL1Q_1;70;0;1
  27;C;br_BLAH1-_GLGL1R_1;70;0;1
  28;C;br_BLCW1-_NECU1Q_1;70;0;1
  29;C;br_DESA1Q_NECU1-_1;70;0;1


$$ElmGenstat;FID(a:40);OP(a:1);loc_name(a:80);fold_id(p);outserv(i);sgn(r);cosn(r);cCategory(a);av_mode(a);mode_inp(a:6);pgini(r);qgini(r);sgini(r);cosgini(r);pf_recap(i);phtech(i);ngnum(i);ip_ctrl(i);usetp(r);phiini(r);Kpf(r);scale0(r);ddroop(r);usp_max(r);usp_min(r);cQ_min(r);cQ_max(r)
  30;C;WTG_AFTO0G_1;70;0;55,55556;0,9;Wind;vdroop;DEF;20;0;20;1;0;0;1;0;1,02;0;0;1;3;1,1;0,9;-16,43382;16,43382
  31;C;WTG_BLKS0G_1;70;0;63,88889;0,9;Wind;vdroop;DEF;21,2;0;21,2;1;0;0;1;0;1,02;0;0;1;3;1,1;0,9;-15,37;22,08
  32;C;WTG_DESA0G_1;70;0;76,66666;0,9;Wind;vdroop;DEF;27,6;0;27,6;1;0;0;1;0;1,01;0;0;1;3;1,05;0,95;-18,33;26,24
  33;C;WTG_DUNH0G_1;70;0;83,36;0,9;Wind;vdroop;DEF;24,6;0;24,6;1;0;0;1;0;1,02;0;0;1;3;1,1;0,9;-19,66629;28,7492
  34;C;WTG_ENHI0G_1;70;0;76,67;0,9;Wind;vdroop;DEF;27,6;0;27,6;1;0;0;1;0;1,01;0;0;1;3;1,1;0,9;-23,82022;23,82022
  35;C;WTG_NOKY0A_1;70;0;118;0,9;Wind;vdroop;DEF;42,4;0;42,4;1;0;0;1;0;1,01;0;0;1;3;1,1;0,9;-36,7216;36,7216
  36;C;WTG_NOKY0B_1;70;0;118;0,9;Wind;vdroop;DEF;42,4;0;42,4;1;0;0;1;0;1,01;0;0;1;3;1,1;0,9;-36,7216;36,7216
  37;C;WTG_SAKN0G_1;70;0;114;0,95;Wind;vdroop;DEF;22,8;0;22,8;1;0;1;1;0;1;0;0;1;3;1,1;0,9;-35,568;35,568
  38;C;WTG_SNQR0G_1;70;0;32,22342;0,931;Wind;vdroop;DEF;12;0;12;1;0;0;1;0;1,01;0;0;1;3;1,1;0,9;-9,86;9,86
  39;C;WTG_SOKY0G_1;70;0;267,5;0,9;Wind;vdroop;DEF;94;0;94;1;0;0;1;0;1,01;0;0;1;3;1,1;0,9;-81,85197;81,85197
  40;C;WTG_TWEN0G_1;70;0;42;0,9;Wind;vdroop;DEF;15,1;0;15,1;1;0;0;1;0;1,02;0;0;1;3;1,05;0,95;-13,104;13,104
  41;C;WTG_WHLL0G_1;70;0;30;0,9;Wind;vdroop;DEF;10,8;0;10,8;1;0;0;1;0;1,02;0;0;1;3;1,1;0,9;-7,17;10,27
  42;C;WTG_WNDR0G_1;70;0;47,6;0,9;Wind;vdroop;DEF;17,1;0;17,1;1;0;0;1;0;1;0;0;1;3;1,1;0,9;-14,81312;14,81312


$$ElmLne;FID(a:40);OP(a:1);loc_name(a:80);fold_id(p);typ_id(p);dline(r);fline(r);GPScoords:MATRIX(a);nlnum(i);inAir(i)
  43;C;lne_BLAH1-_GLGL1Q_1;26;1092;0,435;1;;1;0
  44;C;lne_BLAH1-_GLGL1Q_2;26;;12,6;1;;1;0
  45;C;lne_BLAH1-_GLGL1R_1;27;1092;0,44;1;;1;0
  46;C;lne_BLAH1-_GLGL1R_2;27;;12,6;1;;1;0
  47;C;lne_BLCW1-_MARG1-_1;28;;1,8;1;;1;0
  48;C;lne_KEOO1Q_MARG1Q_1;28;1089;0,9;1;;1;0
  49;C;lne_KEOO1Q_NECU1Q_1;28;;24,25;1;;1;0
  50;C;lne_MARG1Q_MARG1-_1;28;1104;10,1;1;;1;0
  51;C;lne_DESA1Q_NECU1-_1;29;1088;4,3;1;;1;0
  52;C;lne_DESA1Q_NECU1-_2;29;1102;6,4;1;;1;0
  53;C;lne_BLAH1-_DUNH1Q_1;70;;1,15;1;;1;0
  54;C;lne_BLAH1-_DUNH1R_1;70;;1,15;1;;1;0
  55;C;lne_BLAH3A_WNDR3-_1;70;1093;0,21;1;;2;0
  56;C;lne_BLCW3-_BLKS3-_1;70;1096;2,801;1;;2;0
  57;C;lne_DUNH1Q_DUNH1S_1;70;1098;0,336;1;;1;0
  58;C;lne_DUNH1Q_NECU1-_1;70;;13,65;1;;1;0
  59;C;lne_DUNH1R_DUNH1T_1;70;1099;0,372;1;;1;0
  60;C;lne_DUNH1R_NECU1-_1;70;;13,65;1;;1;0
  61;C;lne_ENHI1-_NECU1C_1;70;1091;4,4;1;;1;0
  62;C;lne_GLGL1Q_SAKN1-_1;70;1092;9;1;;1;0
  63;C;lne_GLGL3-_SNQR3-_1;70;1096;2,3;1;;1;0
  64;C;lne_GLGL3-_TWEN3-_1;70;1095;0,175;1;;2;0
  65;C;lne_GLGL3-_WHLL3-_1;70;1094;1,2;1;;1;0
  66;C;lne_NECU1-_SOKY1-_1;70;1097;4,2;1;;1;0
  67;C;lne_NECU1C_NOKY1-_1;70;1090;1,212;1;;1;0


$$ElmNet;FID(a:40);OP(a:1);loc_name(a:80);fold_id(p);frnom(r);pDiagram(p)
  68;C;NGET;;50;
  69;C;SHET;;50;
  70;C;SPTL;;50;


$$ElmTerm;FID(a:40);OP(a:1);loc_name(a:80);fold_id(p);typ_id(p);systype(i);iUsage(i);uknom(r);unknom(r);iminus(i);outserv(i);GPSlat(r);GPSlon(r);vtarget(r)
  71;C;AFTO0G;70;;0;0;0,69;0,398371;0;0;0;0;1
  72;C;BLAH1-;70;;0;0;132;76,21024;0;0;0;0;1
  73;C;BLAH3A;70;;0;0;33;19,05256;0;0;0;0;1
  74;C;BLAH3B;70;;0;0;33;19,05256;0;0;0;0;1
  75;C;BLCW1-;70;;0;0;132;76,21024;0;0;0;0;1
  76;C;BLCW3-;70;;0;0;33;19,05256;0;0;0;0;1
  77;C;BLKS0G;70;;0;0;0,69;0,398371;0;0;0;0;1
  78;C;BLKS3-;70;;0;0;33;19,05256;0;0;0;0;1
  79;C;DESA0G;70;;0;0;0,69;0,398371;0;0;0;0;1
  80;C;DESA1Q;70;;0;1;132;76,21024;0;0;0;0;1
  81;C;DESA3-;70;;0;0;33;19,05256;0;0;0;0;1
  82;C;DUNH0G;70;;0;0;0,69;0,398371;0;0;0;0;1
  83;C;DUNH1Q;70;;0;1;132;76,21024;0;0;0;0;1
  84;C;DUNH1R;70;;0;1;132;76,21024;0;0;0;0;1
  85;C;DUNH1S;70;;0;1;132;76,21024;0;0;0;0;1
  86;C;DUNH1T;70;;0;1;132;76,21024;0;0;0;0;1
  87;C;DUNH3-;70;;0;0;33;19,05256;0;0;0;0;1
  88;C;ENHI0G;70;;0;0;0,69;0,398371;0;0;0;0;1
  89;C;ENHI1-;70;;0;0;132;76,21024;0;0;0;0;1
  90;C;ENHI3-;70;;0;0;33;19,05256;0;0;0;0;1
  91;C;GLGL1Q;70;;0;1;132;76,21024;0;0;0;0;1
  92;C;GLGL1R;70;;0;1;132;76,21024;0;0;0;0;1
  93;C;GLGL3-;70;;0;0;33;19,05256;0;0;0;0;1
  94;C;NECU1-;70;;0;0;132;76,21024;0;0;0;0;1
  95;C;NECU1Q;70;;0;0;132;76,21024;0;0;0;0;1
  96;C;NECU1R;70;;0;0;132;76,21024;0;0;0;0;1
  97;C;NECU2-;70;;0;0;275;158,7713;0;0;0;0;1
  98;C;NECU3Q;70;;0;0;33;19,05256;0;0;0;0;1
  99;C;NECU3R;70;;0;0;33;19,05256;0;0;0;0;1
  100;C;NECU3U;70;;0;0;33;19,05256;0;0;0;0;1
  101;C;NECU3V;70;;0;0;33;19,05256;0;0;0;0;1
  102;C;NECU3W;70;;0;1;33;19,05256;0;0;0;0;1
  103;C;NOKY0A;70;;0;0;0,69;0,398371;0;0;0;0;1
  104;C;NOKY0B;70;;0;0;0,69;0,398371;0;0;0;0;1
  105;C;NOKY1-;70;;0;0;132;76,21024;0;0;0;0;1
  106;C;NOKY3A;70;;0;0;33;19,05256;0;0;0;0;1
  107;C;NOKY3B;70;;0;0;33;19,05256;0;0;0;0;1
  108;C;SAKN0G;70;;0;0;0,69;0,398371;0;0;0;0;1
  109;C;SAKN1-;70;;0;0;132;76,21024;0;0;0;0;1
  110;C;SAKN3-;70;;0;0;33;19,05256;0;0;0;0;1
  111;C;SNQR0G;70;;0;0;0,69;0,398371;0;0;0;0;1
  112;C;SNQR3-;70;;0;0;33;19,05256;0;0;0;0;1
  113;C;SOKY0G;70;;0;0;0,69;0,398371;0;0;0;0;1
  114;C;SOKY1-;70;;0;0;132;76,21024;0;0;0;0;1
  115;C;SOKY3-;70;;0;0;33;19,05256;0;0;0;0;1
  116;C;TWEN0G;70;;0;0;0,69;0,398371;0;0;0;0;1
  117;C;TWEN3-;70;;0;0;33;19,05256;0;0;0;0;1
  118;C;WHLL0G;70;;0;0;0,69;0,398371;0;0;0;0;1
  119;C;WHLL3-;70;;0;0;33;19,05256;0;0;0;0;1
  120;C;WNDR0G;70;;0;0;0,65;0,375277;0;0;0;0;1
  121;C;WNDR3-;70;;0;0;33;19,05256;0;0;0;0;1
  122;C;T3R;26;;0;1;132;76,21024;0;0;0;0;1
  123;C;T3R;27;;0;1;132;76,21024;0;0;0;0;1
  124;C;KEOO1Q;28;;0;1;132;76,21024;0;0;0;0;1
  125;C;MARG1-;28;;0;0;132;76,21024;0;0;0;0;1
  126;C;MARG1Q;28;;0;1;132;76,21024;0;0;0;0;1
  127;C;Y_001;29;;0;1;132;76,21024;0;0;0;0;1


$$ElmTow;FID(a:40);OP(a:1);loc_name(a:80);fold_id(p);outserv(i);i_dist(i);ngeo(i);pGeo:SIZEROW(i);pGeo:0(p);plines:SIZEROW(i);plines:0(p);plines:1(p);dpolar:SIZEROW(i);dpolar:0(r);dpolar:1(r);pCon_e:SIZEROW(i);pCon_e:0(p);pCon_e:1(p);sag_c:SIZEROW(i);sag_c:0(r);sag_c:1(r);ctransp:SIZEROW(i);ctransp:0(r);ctransp:1(r);pCon_c:SIZEROW(i);pCon_c:0(p);pCon_c:1(p)
  128;C;lc_AUCH2-_MAHI2-_1;70;0;1;1;1;1105;1;;;1;0;;2;;;1;0;;1;0;;1;;
  129;C;lc_BLAH1-_DUNH1-_1;70;0;0;1;1;1101;2;53;54;2;0;0;1;;;2;0;0;2;0;0;2;;
  130;C;lc_BLAH1-_GLGL1-_1;70;0;1;1;1;1100;2;44;46;2;0;0;1;;;2;0;0;2;0;0;2;;
  131;C;lc_BLCW1-_MARG1-_1;70;0;0;1;1;1103;1;47;;1;0;;1;;;1;0;;1;0;;1;;
  132;C;lc_DUNH1-_NECU1-_1;70;0;1;1;1;1101;2;58;60;2;0;0;1;;;2;0;0;2;0;0;2;;
  133;C;lc_KEOO1-_NECU1-_1;70;0;1;1;1;1101;2;49;;2;0;0;1;;;2;0;0;2;0;0;2;;


$$ElmTr2;FID(a:40);OP(a:1);loc_name(a:80);fold_id(p);typ_id(p);ntnum(i);outserv(i);nntap(i);i_auto(i);ntrcn(i);usetp(r);usp_low(r);usp_up(r);t2ldc(i)
  134;C;trf_BLAH1-_BLAH3A_1;70;1114;1;0;0;0;1;1,01;1;1,025;1
  135;C;trf_BLAH1-_BLAH3A_2;70;1115;1;0;0;0;1;1,01;1;1,025;1
  136;C;trf_BLAH1-_BLAH3B_1;70;1116;1;0;0;0;1;1,01;1;1,025;1
  137;C;trf_BLAH1-_BLAH3B_2;70;1117;1;0;0;0;1;1,01;1;1,025;1
  138;C;trf_BLAH3A_AFTO0G_1;70;1121;1;0;0;0;0;1;0,99;1,01;0
  139;C;trf_BLCW1-_BLCW3-_1;70;1118;1;0;0;0;1;1,01;1;1,025;1
  140;C;trf_BLKS3-_BLKS0G_1;70;1131;1;0;0;0;0;1;0,99;1,01;0
  141;C;trf_DESA1Q_DESA3-_1;70;1106;1;0;0;0;1;1,01;1;1,025;1
  142;C;trf_DESA3-_DESA0G_1;70;1122;1;0;0;0;0;1;0,99;1,01;0
  143;C;trf_DUNH1S_DUNH3-_1;70;1107;1;0;0;0;1;1,01;1;1,025;1
  144;C;trf_DUNH1T_DUNH3-_1;70;1108;1;0;0;0;1;1,01;1;1,025;1
  145;C;trf_DUNH3-_DUNH0G_1;70;1132;1;0;0;0;0;1;0,99;1,01;0
  146;C;trf_ENHI1-_ENHI3-_1;70;1109;1;0;0;0;1;1,01;1;1,025;1
  147;C;trf_ENHI3-_ENHI0G_1;70;1123;1;0;0;0;0;1;0,99;1,01;0
  148;C;trf_GLGL1Q_GLGL3-_1;70;1119;1;0;0;0;1;1,01;1;1,025;1
  149;C;trf_GLGL1R_GLGL3-_1;70;1120;1;0;0;0;1;1,01;1;1,025;1
  150;C;trf_NOKY1-_NOKY3A_1;70;1110;1;0;0;0;1;1,01;1;1,025;1
  151;C;trf_NOKY1-_NOKY3B_1;70;1111;1;0;0;0;1;1,01;1;1,025;1
  152;C;trf_NOKY3A_NOKY0A_1;70;1124;1;0;0;0;0;1;0,99;1,01;0
  153;C;trf_NOKY3B_NOKY0B_1;70;1125;1;0;0;0;0;1;0,99;1,01;0
  154;C;trf_SAKN1-_SAKN3-_1;70;1112;1;0;0;0;1;1,01;1;1,025;1
  155;C;trf_SAKN3-_SAKN0G_1;70;1126;1;0;0;0;0;1;0,99;1,01;0
  156;C;trf_SNQR3-_SNQR0G_1;70;1127;1;0;0;0;0;1;0,99;1,01;0
  157;C;trf_SOKY1-_SOKY3-_1;70;1113;1;0;0;0;1;1;0,99;1,02;1
  158;C;trf_SOKY1-_SOKY3-_2;70;1113;1;0;0;0;1;1;0,99;1,02;1
  159;C;trf_SOKY3-_SOKY0G_1;70;1128;1;0;0;0;0;1;0,99;1,01;0
  160;C;trf_TWEN3-_TWEN0G_1;70;1129;1;0;0;0;0;1;0,99;1,01;0
  161;C;trf_WHLL3-_WHLL0G_1;70;1133;1;0;0;0;0;1;0,99;1,01;0
  162;C;trf_WNDR3-_WNDR0G_1;70;1130;1;0;0;0;0;1;0,99;1,01;0


$$ElmTr3;FID(a:40);OP(a:1);loc_name(a:80);fold_id(p);nt3nm(i);typ_id(p);outserv(i);n3tap_h(i);n3tap_m(i);n3tap_l(i);i_auto_hl(i);ictrlside(i);ntrcn(i);t3ldc(i);usetp(r);usp_low(r);usp_up(r);chr_name(a:40);for_name(a:100);mTaps:SIZEROW(i);mTaps:SIZECOL(i);iMeasTap(i)
  163;C;tr3_NECU2-_NECU1-_1;70;1;1134;0;0;10;0;0;1;1;1;1,01;1;1,025;S13M;;1;0;0
  164;C;tr3_NECU2-_NECU1-_2;70;1;1136;0;0;10;0;0;1;1;1;1,01;1;1,025;S13P;;1;0;0
  165;C;tr3_NECU2-_NECU1-_3;70;1;1137;0;0;10;0;0;1;1;1;1,01;1;1,025;S13Q;;1;0;0
  166;C;tr3_NECU2-_NECU1Q_1;70;1;1135;0;0;10;0;0;1;1;1;1,01;1;1,025;S13N;;1;0;0
  167;C;tr3_NECU2-_NECU1R_1;70;1;1138;0;0;10;0;0;1;1;1;1,01;1;1,025;S13R;;1;0;0


$$ElmXnet;FID(a:40);OP(a:1);loc_name(a:80);fold_id(p);snss(r);rntxn(r);z2tz1(r);snssmin(r);rntxnmin(r);z2tz1min(r);chr_name(a:40);bustp(a:2);pgini(r);qgini(r);phiini(r);usetp(r);outserv(i);Kpf(r);K(r);cmax(r);xd(r);xq(r)
  168;C;External Grid;70;10000;0,1;1;8000;0,1;1;;SL;0;0;0;1;0;0;0;1,1;0,2;0,2


$$ElmZone;FID(a:40);OP(a:1);loc_name(a:80);fold_id(p);icolor(i);curscale(r)
  169;C;S6;;1;1


$$IntFolder;FID(a:40);OP(a:1);loc_name(a:80);fold_id(p)
  170;C;Layers;846
  171;C;Settings;846
  172;C;Layers;847
  173;C;Settings;847
  174;C;132kV;176
  175;C;Earthwire;176
  176;C;Conductors;177
  177;C;SPTL;
  178;C;Line Types;183
  179;C;TypLne;184
  180;C;Hellenic Cables XLPE;185
  181;C;TypLne;186
  182;C;Lines;177
  183;C;132kV;187
  184;C;ABB XLPE;185
  185;C;33kV;187
  186;C;SPEN XLPE;185
  187;C;Cables;177
  188;C;3-Winding Model;189
  189;C;275/132kV;190
  190;C;Transformers;177
  191;C;132/33kV;190
  192;C;Wind Generator Transformers;190
  193;C;Wind Generators;177
  194;C;132kV;196
  195;C;275kV;196
  196;C;Towers;177
  197;C;275kV;176


$$IntGrf;FID(a:40);OP(a:1);loc_name(a:80);fold_id(p);iCol(i);iVis(i);iLevel(i);rCenterX(r);rCenterY(r);sSymNam(a:80);pDataObj(p);iRot(i);rSizeX(r);rSizeY(r)
  198;C;AFTO0G_Graph;846;1;1;1;345,625;179,375;TermStrip;71;0;0,666666;1
  199;C;BLAH1-_Graph;846;1;1;1;266,875;271,25;TermStrip;72;0;2,666667;1
  200;C;BLAH3A_Graph;846;1;1;1;328,125;231,875;TermStrip;73;0;2;1
  201;C;BLAH3B_Graph;846;1;1;1;288,75;240,625;TermStrip;74;0;0,666666;1
  202;C;BLCW1-_Graph;846;1;1;1;223,125;568,75;TermStrip;75;0;0,666666;1
  203;C;BLCW3-_Graph;846;1;1;1;192,5;616,875;TermStrip;76;0;0,666666;1
  204;C;BLKS0G_Graph;846;1;1;1;166,25;721,875;TermStrip;77;0;0,666666;1
  205;C;BLKS3-_Graph;846;1;1;1;175;669,375;TermStrip;78;0;1;1
  206;C;DESA0G_Graph;846;1;1;1;380,625;568,75;TermStrip;79;0;0,666666;1
  207;C;DESA1Q_Graph;846;1;1;1;328,125;455;PointTerm;80;0;1;1
  208;C;DESA3-_Graph;846;1;1;1;350;516,25;TermStrip;81;0;1;1
  209;C;DUNH0G_Graph;846;1;1;1;87,5;363,125;TermStrip;82;0;0,666666;1
  210;C;DUNH1Q_Graph;846;1;1;1;284,375;332,5;PointTerm;83;0;1;1
  211;C;DUNH1R_Graph;846;1;1;1;266,875;336,875;PointTerm;84;0;1;1
  212;C;DUNH1S_Graph;846;1;1;1;214,375;332,5;PointTerm;85;0;1;1
  213;C;DUNH1T_Graph;846;1;1;1;205,625;350;PointTerm;86;0;1;1
  214;C;DUNH3-_Graph;846;1;1;1;148,75;350;TermStrip;87;0;1,666667;1
  215;C;ENHI0G_Graph;846;1;1;1;446,25;520,625;TermStrip;88;0;0,666666;1
  216;C;ENHI1-_Graph;846;1;1;1;354,375;428,75;TermStrip;89;0;0,666666;1
  217;C;ENHI3-_Graph;846;1;1;1;402,5;476,875;TermStrip;90;0;1,333333;1
  218;C;GLGL1Q_Graph;846;1;1;1;231,875;210;PointTerm;91;0;1;1
  219;C;GLGL1R_Graph;846;1;1;1;210;240,625;PointTerm;92;0;1;1
  220;C;GLGL3-_Graph;846;1;1;1;170,625;188,125;TermStrip;93;0;1,666667;1
  221;C;Graphical Net Object100;846;-16777216;1;1;102,8125;135,625;d_tr2;160;312;1;1
  222;C;Graphical Net Object101;846;-16777216;1;1;336,875;205,625;d_tr2;138;18;1;1
  223;C;Graphical Net Object102;846;-16777216;1;1;399,5833;374,0625;d_tr2;150;103;1;1
  224;C;Graphical Net Object103;846;-16777216;1;1;271,25;124,6875;d_tr2;154;25;1;1
  225;C;Graphical Net Object104;846;-16777216;1;1;453,5417;439,6875;d_tr2;159;111;1;1
  226;C;Graphical Net Object105;846;-16777216;1;1;393,75;413,4375;d_tr2;158;117;1;1
  227;C;Graphical Net Object106;846;-16777216;1;1;385;413,4375;d_tr2;157;117;1;1
  228;C;Graphical Net Object107;846;-16777216;1;1;406,875;179,375;d_tr2;162;45;1;1
  229;C;Graphical Net Object110;846;-16777216;1;1;363,125;216,5625;d_lin;55;55;1;1
  230;C;Graphical Net Object111;846;-16777216;1;1;348,125;395,9375;d_lin;66;102;1;1
  231;C;Graphical Net Object112;846;-16777216;1;1;245;181,5625;d_lin;62;25;1;1
  232;C;Graphical Net Object113;846;-16777216;1;1;339,6875;411,25;d_lin;61;320;1;1
  233;C;Graphical Net Object114;846;-16777216;1;1;347,8125;380,625;d_lin;67;49;1;1
  234;C;Graphical Net Object115;846;-16777216;1;1;145,1042;170,625;d_lin;64;314;1;1
  235;C;Graphical Net Object116;846;-16777216;1;1;390,8333;350;d_tr2;151;53;1;1
  236;C;Graphical Net Object117;846;-16777216;1;1;453,5417;323,75;d_tr2;153;72;1;1
  237;C;Graphical Net Object118;846;-16777216;1;1;467,3958;382,8125;d_tr2;152;94;1;1
  238;C;Graphical Net Object119;846;-16777216;1;1;425,8333;498,75;d_tr2;147;141;1;1
  239;C;Graphical Net Object132;846;-16777216;1;1;315;376,25;d_net;168;0;1;1
  240;C;Graphical Net Object52;846;-16777216;1;1;290,9375;363,125;d_lin;58;168;1;1
  241;C;Graphical Net Object53;846;-16777216;1;1;273,4375;365,3125;d_lin;60;167;1;1
  242;C;Graphical Net Object54;846;-16777216;1;1;261,0417;304,0625;d_lin;54;170;1;1
  243;C;Graphical Net Object55;846;-16777216;1;1;281,4583;301,875;d_lin;53;175;1;1
  244;C;Graphical Net Object56;846;-16777216;1;1;190,3125;214,375;d_tr2;149;323;1;1
  245;C;Graphical Net Object57;846;-16777216;1;1;310;251,5625;d_tr2;134;43;1;1
  246;C;Graphical Net Object58;846;-16777216;1;1;273,8542;255,9375;d_tr2;136;38;1;1
  247;C;Graphical Net Object59;846;-16777216;1;1;206,7188;199,0625;d_tr2;148;293;1;1
  248;C;Graphical Net Object60;846;-16777216;1;1;298,4375;251,5625;d_tr2;135;40;1;1
  249;C;Graphical Net Object61;846;-16777216;1;1;182,6562;350;d_tr2;144;270;1;1
  250;C;Graphical Net Object62;846;-16777216;1;1;115,9375;356,5625;d_tr2;145;256;1;1
  251;C;Graphical Net Object63;846;-16777216;1;1;336,875;485,625;d_tr2;141;164;1;1
  252;C;Graphical Net Object64;846;-16777216;1;1;281,7708;255,9375;d_tr2;137;33;1;1
  253;C;Graphical Net Object65;846;-16777216;1;1;181,5625;341,25;d_tr2;143;255;1;1
  254;C;Graphical Net Object66;846;-16777216;1;1;258,125;433,125;auto-transformer;163;0;1;1
  255;C;Graphical Net Object67;846;-16777216;1;1;282,1875;422,1875;auto-transformer;164;40;1;1
  256;C;Graphical Net Object68;846;-16777216;1;1;205,625;459,375;auto-transformer;167;0;1;1
  257;C;Graphical Net Object69;846;-16777216;1;1;275;411,25;auto-transformer;165;180;1;1
  258;C;Graphical Net Object70;846;-16777216;1;1;258,125;503,125;auto-transformer;166;0;1;1
  259;C;Graphical Net Object71;846;-16777216;1;1;320,3125;424,375;Compd_lin;29;346;1;1
  260;C;Graphical Net Object72;846;-16777216;1;1;137,8125;194,6875;d_lin;65;253;1;1
  261;C;Graphical Net Object73;846;-16777216;1;1;249,375;332,5;d_lin;57;270;1;1
  262;C;Graphical Net Object74;846;-16777216;1;1;176,4583;157,5;d_lin;63;357;1;1
  263;C;Graphical Net Object75;846;-16777216;1;1;225,9375;255,9375;Compd_lin;27;314;1;1
  264;C;Graphical Net Object76;846;-16777216;1;1;240,625;544,6875;Compd_lin;28;36;1;1
  265;C;Graphical Net Object77;846;-16777216;1;1;236,25;343,4375;d_lin;59;258;1;1
  266;C;Graphical Net Object78;846;-16777216;1;1;241,875;240,625;Compd_lin;26;342;1;1
  267;C;Graphical Net Object79;846;-16777216;1;1;185,9375;643,125;d_lin;56;194;1;1
  268;C;Graphical Net Object80;846;-16777216;1;1;84,58334;345,625;d_genstat;33;0;1;1
  269;C;Graphical Net Object81;846;-16777216;1;1;164,0625;98,4375;d_tr2;156;347;1;1
  270;C;Graphical Net Object82;846;-16777216;1;1;363,8542;542,5;d_tr2;142;152;1;1
  271;C;Graphical Net Object83;846;-16777216;1;1;207,8125;592,8125;d_tr2;139;212;1;1
  272;C;Graphical Net Object84;846;-16777216;1;1;172,0833;695,625;d_tr2;140;186;1;1
  273;C;Graphical Net Object85;846;-16777216;1;1;75,46875;196,875;d_tr2;161;279;1;1
  274;C;Graphical Net Object86;846;-16777216;1;1;383,5417;551,25;d_genstat;32;0;1;1
  275;C;Graphical Net Object87;846;-16777216;1;1;163,3333;704,375;d_genstat;31;0;1;1
  276;C;Graphical Net Object88;846;-16777216;1;1;48,125;175;d_genstat;41;0;1;1
  277;C;Graphical Net Object89;846;-16777216;1;1;345,625;161,875;d_genstat;30;0;1;1
  278;C;Graphical Net Object90;846;-16777216;1;1;157,5;52,5;d_genstat;38;0;1;1
  279;C;Graphical Net Object91;846;-16777216;1;1;501,6667;367,5;d_genstat;35;0;1;1
  280;C;Graphical Net Object92;846;-16777216;1;1;83,125;100,625;d_genstat;40;0;1;1
  281;C;Graphical Net Object93;846;-16777216;1;1;488,5417;433,125;d_genstat;39;0;1;1
  282;C;Graphical Net Object94;846;-16777216;1;1;301,875;21,875;d_genstat;37;0;1;1
  283;C;Graphical Net Object95;846;-16777216;1;1;449,1667;503,125;d_genstat;34;0;1;1
  284;C;Graphical Net Object96;846;-16777216;1;1;428,75;140;d_genstat;42;0;1;1
  285;C;Graphical Net Object97;846;-16777216;1;1;481,25;297,5;d_genstat;36;0;1;1
  286;C;Graphical Net Object98;846;-16777216;1;1;375,5208;452,8125;d_tr2;146;139;1;1
  287;C;Graphical Net Object99;846;-16777216;1;1;295,3125;67,8125;d_tr2;155;13;1;1
  288;C;NECU1-_Graph;846;1;1;1;306,25;393,75;TermStrip;94;0;3,333333;1
  289;C;NECU1Q_Graph;846;1;1;1;258,125;520,625;TermStrip;95;0;0,666666;1
  290;C;NECU1R_Graph;846;1;1;1;205,625;476,875;TermStrip;96;0;0,666666;1
  291;C;NECU2-_Graph;846;1;1;1;258,125;450,625;TermStrip;97;0;1,666667;1
  292;C;NECU3Q_Graph;846;1;1;1;231,875;494,375;TermStrip;98;0;0,666666;1
  293;C;NECU3R_Graph;846;1;1;1;196,875;446,25;TermStrip;99;0;0,666666;1
  294;C;NECU3U_Graph;846;1;1;1;258,125;411,25;TermStrip;100;0;0,666666;1
  295;C;NECU3V_Graph;846;1;1;1;280;420;TermStrip;101;0;0,666666;1
  296;C;NECU3W_Graph;846;1;1;1;293,125;441,875;PointTerm;102;0;1;1
  297;C;NOKY0A_Graph;846;1;1;1;498,75;385;TermStrip;103;0;0,666666;1
  298;C;NOKY0B_Graph;846;1;1;1;481,25;315;TermStrip;104;0;0,666666;1
  299;C;NOKY1-_Graph;846;1;1;1;367,5;367,5;TermStrip;105;0;1;1
  300;C;NOKY3A_Graph;846;1;1;1;433,125;380,625;TermStrip;106;0;1,333333;1
  301;C;NOKY3B_Graph;846;1;1;1;420;332,5;TermStrip;107;0;1,333333;1
  302;C;SAKN0G_Graph;846;1;1;1;301,875;39,375;TermStrip;108;0;0,666666;1
  303;C;SAKN1-_Graph;846;1;1;1;258,125;153,125;TermStrip;109;0;0,666666;1
  304;C;SAKN3-_Graph;846;1;1;1;284,375;96,25;TermStrip;110;0;1;1
  305;C;SNQR0G_Graph;846;1;1;1;157,5;70;TermStrip;111;0;0,666666;1
  306;C;SNQR3-_Graph;846;1;1;1;175;126,875;TermStrip;112;0;1;1
  307;C;SOKY0G_Graph;846;1;1;1;485,625;450,625;TermStrip;113;0;0,666666;1
  308;C;SOKY1-_Graph;846;1;1;1;358,75;398,125;TermStrip;114;0;1;1
  309;C;SOKY3-_Graph;846;1;1;1;424,375;428,75;TermStrip;115;0;1,333333;1
  310;C;TWEN0G_Graph;846;1;1;1;83,125;118,125;TermStrip;116;0;0,666666;1
  311;C;TWEN3-_Graph;846;1;1;1;126,875;153,125;TermStrip;117;0;1;1
  312;C;WHLL0G_Graph;846;1;1;1;48,125;192,5;TermStrip;118;0;0,666666;1
  313;C;WHLL3-_Graph;846;1;1;1;109,375;201,25;TermStrip;119;0;1;1
  314;C;WNDR0G_Graph;846;1;1;1;428,75;157,5;TermStrip;120;0;0,666666;1
  315;C;WNDR3-_Graph;846;1;1;1;385;201,25;TermStrip;121;0;0,666666;1
  316;C;AFTO0G_Graph;847;1;1;1;621,25;1448,125;TermStrip;71;0;0,666666;1
  317;C;AREC01_Graph;847;1;1;1;726,25;1330;TermStrip;;0;0,666666;1
  318;C;AREC02_Graph;847;1;1;1;774,375;1351,875;TermStrip;;0;0,666666;1
  319;C;AREC1-_Graph;847;1;1;1;752,5;1286,25;TermStrip;;0;1,333333;1
  320;C;AREC3-_Graph;847;1;1;1;748,125;1343,125;TermStrip;;0;1;1
  321;C;AREC3A_Graph;847;1;1;1;735;1316,875;TermStrip;;0;1,666667;1
  322;C;AREC3B_Graph;847;1;1;1;748,125;1330;TermStrip;;0;1,666667;1
  323;C;AUCH2-_Graph;847;1;1;1;756,875;1128,75;TermStrip;;0;1,333333;1
  324;C;BLAH1-_Graph;847;1;1;1;608,125;1386,875;TermStrip;72;0;2,666667;1
  325;C;BLAH3A_Graph;847;1;1;1;630;1426,25;TermStrip;73;0;2,333333;1
  326;C;BLAH3B_Graph;847;1;1;1;603,75;1413,125;TermStrip;74;0;1;1
  327;C;BLCW1-_Graph;847;1;1;1;595;1098,125;TermStrip;75;0;0,666666;1
  328;C;BLCW3-_Graph;847;1;1;1;581,875;1093,75;TermStrip;76;0;1;1
  329;C;BLKS0G_Graph;847;1;1;1;560;1111,25;TermStrip;77;0;0,666666;1
  330;C;BLKS3-_Graph;847;1;1;1;564,375;1093,75;TermStrip;78;0;1;1
  331;C;DESA0G_Graph;847;1;1;1;529,375;1233,75;TermStrip;79;0;0,666666;1
  332;C;DESA1Q_Graph;847;1;1;1;560;1233,75;PointTerm;80;0;1;1
  333;C;DESA3-_Graph;847;1;1;1;538,125;1242,5;TermStrip;81;0;1,333333;1
  334;C;DUNH0G_Graph;847;1;1;1;564,375;1404,375;TermStrip;82;0;0,666666;1
  335;C;DUNH1Q_Graph;847;1;1;1;595;1312,5;PointTerm;83;0;1;1
  336;C;DUNH1R_Graph;847;1;1;1;590,625;1312,5;PointTerm;84;0;1;1
  337;C;DUNH1S_Graph;847;1;1;1;555,625;1356,25;PointTerm;85;0;1;1
  338;C;DUNH1T_Graph;847;1;1;1;564,375;1356,25;PointTerm;86;0;1;1
  339;C;DUNH3-_Graph;847;1;1;1;560;1382,5;TermStrip;87;0;2;1
  340;C;ENHI0G_Graph;847;1;1;1;555,625;1268,75;TermStrip;88;0;0,666666;1
  341;C;ENHI1-_Graph;847;1;1;1;573,125;1242,5;TermStrip;89;0;0,666666;1
  342;C;ENHI3-_Graph;847;1;1;1;555,625;1255,625;TermStrip;90;0;1,666667;1
  343;C;GLAP0G_Graph;847;1;1;1;783,125;1404,375;TermStrip;;0;0,666666;1
  344;C;GLAP3-_Graph;847;1;1;1;761,25;1382,5;TermStrip;;0;1;1
  345;C;GLGL1Q_Graph;847;1;1;1;625,625;1456,875;PointTerm;91;0;1;1
  346;C;GLGL1R_Graph;847;1;1;1;608,125;1448,125;PointTerm;92;0;1;1
  347;C;GLGL3-_Graph;847;1;1;1;638,75;1487,5;TermStrip;93;0;2;1
  348;C;Graphical Net Object1129;847;-16777216;1;1;726,6146;1323,438;d_tr2;;159;1;1
  349;C;Graphical Net Object1130;847;-16777216;1;1;743,0208;1301,562;d_tr2;;183;1;1
  350;C;Graphical Net Object1131;847;-16777216;1;1;763,4375;1340,938;d_tr2;;144;1;1
  351;C;Graphical Net Object1134;847;-16777216;1;1;755,7812;1308,125;d_tr2;;171;1;1
  352;C;Graphical Net Object1272;847;-16777216;1;1;716,7708;1176,875;d_tr2;;216;1;1
  353;C;Graphical Net Object1313;847;-16777216;1;1;758,3333;1137,5;d_tr2;;223;1;1
  354;C;Graphical Net Object1590;847;-16777216;1;1;701,4583;1172,5;d_genstat;;0;1;1
  355;C;Graphical Net Object1659;847;-16777216;1;1;772,1875;1155;auto-transformer;;189;1;1
  356;C;Graphical Net Object1844;847;-16777216;1;1;529,375;1216,25;d_genstat;32;0;1;1
  357;C;Graphical Net Object1846;847;-16777216;1;1;746,6667;1163,75;d_genstat;;0;1;1
  358;C;Graphical Net Object1848;847;-16777216;1;1;567,2917;1386,875;d_genstat;33;0;1;1
  359;C;Graphical Net Object1854;847;-16777216;1;1;707,2917;1518,125;d_genstat;41;0;1;1
  360;C;Graphical Net Object1856;847;-16777216;1;1;618,3333;1430,625;d_genstat;30;0;1;1
  361;C;Graphical Net Object1861;847;-16777216;1;1;786,0417;1386,875;d_genstat;;0;1;1
  362;C;Graphical Net Object1862;847;-16777216;1;1;557,0833;1093,75;d_genstat;31;0;1;1
  363;C;Graphical Net Object1863;847;-16777216;1;1;672,2917;1474,375;d_genstat;38;0;1;1
  364;C;Graphical Net Object1865;847;-16777216;1;1;695,625;1045,625;d_genstat;;0;1;1
  365;C;Graphical Net Object1866;847;-16777216;1;1;529,375;1168,125;d_genstat;39;0;1;1
  366;C;Graphical Net Object1868;847;-16777216;1;1;697,0833;1111,25;d_genstat;;0;1;1
  367;C;Graphical Net Object1887;847;-16777216;1;1;636,5625;1159,375;auto-transformer;163;207;1;1
  368;C;Graphical Net Object1890;847;-16777216;1;1;636,5625;1159,375;auto-transformer;165;207;1;1
  369;C;Graphical Net Object1899;847;-16777216;1;1;636,5625;1159,375;auto-transformer;164;207;1;1
  370;C;Graphical Net Object1904;847;-16777216;1;1;614,6875;1085;auto-transformer;167;289;1;1
  371;C;Graphical Net Object1914;847;-16777216;1;1;647,5;1100,312;auto-transformer;166;277;1;1
  372;C;Graphical Net Object1924;847;-16777216;1;1;615,625;1264,375;d_lin;58;23;1;1
  373;C;Graphical Net Object1944;847;-16777216;1;1;563,6458;1102,5;d_tr2;140;185;1;1
  374;C;Graphical Net Object1945;847;-16777216;1;1;601,7188;1400;d_tr2;136;147;1;1
  375;C;Graphical Net Object1947;847;-16777216;1;1;615,5625;1467,812;d_tr2;149;159;1;1
  376;C;Graphical Net Object1949;847;-16777216;1;1;711,6667;1115,625;d_tr2;;90;1;1
  377;C;Graphical Net Object1952;847;-16777216;1;1;593,4375;1400;d_tr2;137;142;1;1
  378;C;Graphical Net Object1954;847;-16777216;1;1;570,0625;1369,375;d_tr2;144;157;1;1
  379;C;Graphical Net Object1955;847;-16777216;1;1;553,4375;1238,125;d_tr2;141;236;1;1
  380;C;Graphical Net Object1956;847;-16777216;1;1;727,7083;1133,125;d_tr2;;175;1;1
  381;C;Graphical Net Object1957;847;-16777216;1;1;713,8542;1102,5;d_tr2;;329;1;1
  382;C;Graphical Net Object1958;847;-16777216;1;1;565,1042;1393,438;d_tr2;145;198;1;1
  383;C;Graphical Net Object1959;847;-16777216;1;1;700,7292;1122,188;d_tr2;;162;1;1
  384;C;Graphical Net Object1961;847;-16777216;1;1;659,1667;1489,688;d_tr2;156;107;1;1
  385;C;Graphical Net Object1965;847;-16777216;1;1;529,375;1238,125;d_tr2;142;0;1;1
  386;C;Graphical Net Object1967;847;-16777216;1;1;628,5;1406,562;d_tr2;134;193;1;1
  387;C;Graphical Net Object1969;847;-16777216;1;1;617,375;1406,562;d_tr2;135;196;1;1
  388;C;Graphical Net Object1970;847;-16777216;1;1;549,9375;1369,375;d_tr2;143;203;1;1
  389;C;Graphical Net Object1975;847;-16777216;1;1;586,9792;1095,938;d_tr2;139;293;1;1
  390;C;Graphical Net Object1976;847;-16777216;1;1;629,5625;1472,188;d_tr2;148;166;1;1
  391;C;Graphical Net Object1977;847;-16777216;1;1;689,7917;1524,688;d_tr2;161;133;1;1
  392;C;Graphical Net Object1980;847;-16777216;1;1;756,875;1314,688;d_tr2;;189;1;1
  393;C;Graphical Net Object1981;847;-16777216;1;1;770,7292;1393,438;d_tr2;;139;1;1
  394;C;Graphical Net Object1982;847;-16777216;1;1;740,8333;1165,938;d_tr2;;180;1;1
  395;C;Graphical Net Object1983;847;-16777216;1;1;694,8958;1076,25;d_tr2;;3;1;1
  396;C;Graphical Net Object2011;847;-16777216;1;1;730,625;1098,125;d_shunt;;0;1;1
  397;C;Graphical Net Object2024;847;-16777216;1;1;619,375;1421,875;Compd_lin;26;170;1;1
...


$$IntGrfcon;FID(a:40);OP(a:1);loc_name(a:80);fold_id(p);rX:SIZEROW(i);rX:0(r);rX:1(r);rX:2(r);rY:SIZEROW(i);rY:0(r);rY:1(r);rY:2(r);iDatConNr(i)
  515;C;GCO_1;221;2;106,082415769241;122,5;;2;138,531591794881;153,125;;0
  516;C;GCO_2;221;2;99,542584230759;83,125;;2;132,718408205119;118,125;;1
  517;C;GCO_1;222;2;335,491503523676;328,125;;2;209,775489428971;231,875;;0
  518;C;GCO_2;222;2;338,258496476324;345,625;;2;201,474510571029;179,375;;1
  519;C;GCO_1;223;2;395,326106989351;371,875;;2;373,054209567533;367,5;;0
  520;C;GCO_2;223;2;403,840559503469;427,29166649282;;2;375,070790432467;380,625;;1
  521;C;GCO_1;224;2;269,416620473605;258,125;;2;128,659822307189;153,125;;0
  522;C;GCO_2;224;2;273,083379526395;284,375;;2;120,715177692811;96,25;;1
  523;C;GCO_1;225;2;449,445226472093;424,375;;2;438,151334941044;428,75;;0
  524;C;GCO_2;225;2;457,638106774317;482,70833324641;;2;441,223665058956;450,625;;1
  525;C;GCO_1;226;2;389,836881039375;363,125;;2;411,480940519688;398,125;;0
  526;C;GCO_2;226;2;397,663118960625;424,375;;2;415,394059480312;428,75;;1
  527;C;GCO_1;227;2;381,086880912322;354,375;;2;411,480940513024;398,125;;0
  528;C;GCO_2;227;2;388,913118826907;415,62499973923;;2;415,394059486976;428,75;;1
  529;C;GCO_1;228;2;403,781407832309;385;;2;182,468592167691;201,25;;0
  530;C;GCO_2;228;2;409,968592167691;428,75;;2;176,281407832309;157,5;;1
  531;C;GCO_1;229;2;363,125;341,25;;2;216,5625;231,875;;0
  532;C;GCO_2;229;2;363,125;385;;2;216,5625;201,25;;1
  533;C;GCO_1;230;2;348,124999627471;337,499999254942;;2;395,9375;393,75;;0
  534;C;GCO_2;230;2;348,124999627471;358,75;;2;395,9375;398,125;;1
  535;C;GCO_1;231;2;245;231,875;;2;181,5625;210;;0
  536;C;GCO_2;231;2;245;258,125;;2;181,5625;153,125;;1
  537;C;GCO_1;232;2;339,687499776483;354,375;;2;411,25;428,75;;0
  538;C;GCO_2;232;2;339,687499776483;324,999999552965;;2;411,25;393,75;;1
  539;C;GCO_1;233;2;347,812499687076;332,499999374151;;2;380,625;393,75;;0
  540;C;GCO_2;233;2;347,812499687076;363,125;;2;380,625;367,5;;1
  541;C;GCO_1;234;2;145,10416675359;163,33333350718;;2;170,625;188,125;;0
  542;C;GCO_2;234;2;145,10416675359;126,875;;2;170,625;153,125;;1
  543;C;GCO_1;235;2;387,333333251104;367,5;;2;352,625000006258;367,5;;0
  544;C;GCO_2;235;2;394,333333241716;414,16666649282;;2;347,374999993741;332,5;;1
  545;C;GCO_1;236;2;449,369742594815;425,83333350718;;2;325,067449738483;332,5;;0
  546;C;GCO_2;236;2;457,713590912365;481,25;;2;322,432550261517;315;;1
  547;C;GCO_1;237;2;463,033720002843;438,95833350718;;2;382,47695281585;380,625;;0
  548;C;GCO_2;237;2;471,757946750747;495,83333324641;;2;383,14804718415;385;;1
  549;C;GCO_1;238;2;423,100292556161;408,33333350718;;2;495,333698948754;476,875;;0
  550;C;GCO_2;238;2;428,566374197429;443,33333324641;;2;502,166301051246;520,625;;1
  551;C;GCO_1;239;2;314,999999791384;314,999999791384;;2;380,625;393,75;;0
  552;C;GCO_1;240;2;290,937500104308;284,375;;2;363,125;332,5;;0
  553;C;GCO_2;240;2;290,937500104308;297,500000208616;;2;363,125;393,75;;1
  554;C;GCO_1;241;2;273,437500312924;266,875;;2;365,3125;336,875;;0
  555;C;GCO_2;241;2;273,437500312924;280,000000625849;;2;365,3125;393,75;;1
  556;C;GCO_1;242;2;261,04166649282;255,20833298564;;2;304,0625;271,25;;0
  557;C;GCO_2;242;2;261,04166649282;266,875;;2;304,0625;336,875;;1
  558;C;GCO_1;243;2;281,45833350718;278,54166701436;;2;301,875;271,25;;0
  559;C;GCO_2;243;2;281,45833350718;284,375;;2;301,875;332,5;;1
  560;C;GCO_1;244;2;192,9375;210;;2;217,875;240,625;;0
  561;C;GCO_2;244;2;187,6875;170,625;;2;210,875;188,125;;1
  562;C;GCO_1;245;2;307,036771452401;291,875000745058;;2;254,781179755259;271,25;;0
  563;C;GCO_2;245;2;312,963229292657;328,125;;2;248,343820244741;231,875;;1
  564;C;GCO_1;246;2;271,158450000445;261,874999850988;;2;259,383328970142;271,25;;0
  565;C;GCO_2;246;2;276,549883096953;285,83333324641;;2;252,491671029858;240,625;;1
  566;C;GCO_1;247;2;210,730931369029;231,875;;2;200,806926729834;210;;0
  567;C;GCO_2;247;2;202,706568370201;181,56249973923;;2;197,318073270166;188,125;;1
  568;C;GCO_1;248;2;295,621043118421;281,875000447035;;2;254,910364151239;271,25;;0
  569;C;GCO_2;248;2;301,253957328614;315;;2;248,214635848761;231,875;;1
  570;C;GCO_1;249;2;187,031249869615;205,625;;2;350;350;;0
  571;C;GCO_2;249;2;178,281249869615;159,68749973923;;2;350;350;;1
  572;C;GCO_1;250;2;120,174656710944;141,45833350718;;2;355,472945452569;350;;0
  573;C;GCO_2;250;2;111,700343549826;90,4166667535901;;2;357,652054547431;363,125;;1
  574;C;GCO_1;251;2;335,673095065449;328,125;;2;481,418332729071;455;;0
  575;C;GCO_2;251;2;338,076904934551;345,625;;2;489,831667270929;516,25;;1
  576;C;GCO_1;252;2;279,396182359248;271,875000149012;;2;259,611960122387;271,25;;0
  577;C;GCO_2;252;2;284,145484543353;291,66666675359;;2;252,263039877613;240,625;;1
  578;C;GCO_1;253;2;185,789777860755;214,375;;2;340,122725903799;332,5;;0
  579;C;GCO_2;253;2;177,335222139245;148,75;;2;342,377274096201;350;;1
  580;C;GCO_1;254;2;258,125;258,125;;2;437,5;450,625;;0
  581;C;GCO_2;254;2;258,125;258,125;;2;428,75;411,25;;2
  582;C;GCO_3;254;2;262,5;300,000000149012;;2;433,125;393,75;;1
  583;C;GCO_1;255;3;279,361502693586;247,18750026077;247,18750026077;3;425,52731499849;450,625;450,625;0
  584;C;GCO_2;255;3;285,013497306415;287,500000447035;287,500000447035;3;418,84768500151;393,75;393,75;1
  585;C;GCO_3;255;3;285,52731499849;280;280;3;425,013497306415;420;420;2
  586;C;GCO_1;256;2;205,625;205,625;;2;463,75;476,875;;1
  587;C;GCO_2;256;2;205,625;196,875;;2;455;446,25;;0
  588;C;GCO_3;256;2;210;250,83333350718;;2;459,375;450,625;;2
  589;C;GCO_1;257;2;275,000000745058;275,000000745058;;2;406,875;393,75;;1
  590;C;GCO_2;257;2;275,000000745058;293,125;;2;415,625;441,875;;0
  591;C;GCO_3;257;2;270,625000745058;269,06249973923;;2;411,25;450,625;;2
  592;C;GCO_1;258;2;258,125;258,125;;2;507,5;520,625;;1
  593;C;GCO_2;258;2;258,125;231,875;;2;498,75;494,375;;0
  594;C;GCO_3;258;2;262,5;265,41666649282;;2;503,125;450,625;;2
  595;C;GCO_1;259;2;320,312499925494;328,125;;2;424,375;455;;0
  596;C;GCO_2;259;2;320,312499925494;312,499999850988;;2;424,375;393,75;;1
  597;C;GCO_1;260;2;137,812500130385;159,68750026077;;2;194,6875;188,125;;0
  598;C;GCO_2;260;2;137,812500130385;115,9375;;2;194,6875;201,25;;1
  599;C;GCO_1;261;2;249,375;284,375;;2;332,5;332,5;;0
  600;C;GCO_2;261;2;249,375;214,375;;2;332,5;332,5;;1
  601;C;GCO_1;262;2;176,45833324641;177,91666649282;;2;157,5;188,125;;0
  602;C;GCO_2;262;2;176,45833324641;175;;2;157,5;126,875;;1
  603;C;GCO_1;263;2;225,937499627471;241,874999254942;;2;255,9375;271,25;;0
  604;C;GCO_2;263;2;225,937499627471;210;;2;255,9375;240,625;;1
  605;C;GCO_1;264;2;240,625;223,125;;2;544,6875;568,75;;0
  606;C;GCO_2;264;2;240,625;258,125;;2;544,6875;520,625;;1
  607;C;GCO_1;265;2;236,25;266,875;;2;343,4375;336,875;;0
  608;C;GCO_2;265;2;236,25;205,625;;2;343,4375;350;;1
  609;C;GCO_1;266;2;241,874999776483;251,874999552965;;2;240,625;271,25;;0
  610;C;GCO_2;266;2;241,874999776483;231,875;;2;240,625;210;;1
  611;C;GCO_1;267;2;185,9375;192,5;;2;643,125;616,875;;0
  612;C;GCO_2;267;2;185,9375;179,375;;2;643,125;669,375;;1
  613;C;GCO_1;268;2;84,5833332464099;84,5833332464099;;2;350;363,125;;0
  614;C;GCO_1;269;2;165,046260341807;170,625;;2;102,700461481164;126,875;;0
  615;C;GCO_2;269;2;163,078739658193;157,5;;2;94,174538518836;70;;1
  616;C;GCO_1;270;2;361,812097667649;350;;2;538,63081670365;516,25;;0
  617;C;GCO_2;270;2;365,896235578761;377,70833324641;;2;546,36918329635;568,75;;1
  618;C;GCO_1;271;2;210,161330278345;223,125;;2;589,121480991172;568,75;;0
  619;C;GCO_2;271;2;205,463669721655;192,5;;2;596,503519008828;616,875;;1
  620;C;GCO_1;272;2;172,566471296261;175;;2;691,276758660013;669,375;;0
  621;C;GCO_2;272;2;171,600195457329;169,16666675359;;2;699,973241339987;721,875;;1
  622;C;GCO_1;273;2;79,7888027646356;102,8125;;2;197,566208442342;201,25;;0
  623;C;GCO_2;273;2;71,1486972353644;48,125;;2;196,183791557658;192,5;;1
  624;C;GCO_1;274;2;383,54166675359;383,54166675359;;2;555,625;568,75;;0
  625;C;GCO_1;275;2;163,33333324641;163,33333324641;;2;708,75;721,875;;0
  626;C;GCO_1;276;2;48,125;48,125;;2;179,375;192,5;;0
  627;C;GCO_1;277;2;345,625;345,625;;2;166,25;179,375;;0
  628;C;GCO_1;278;2;157,5;157,5;;2;56,875;70;;0
  629;C;GCO_1;279;2;501,66666675359;501,66666675359;;2;371,875;385;;0
  630;C;GCO_1;280;2;83,125;83,125;;2;105;118,125;;0
  631;C;GCO_1;281;2;488,54166675359;488,54166675359;;2;437,5;450,625;;0
  632;C;GCO_1;282;2;301,875;301,875;;2;26,25;39,375;;0
  633;C;GCO_1;283;2;449,16666675359;449,16666675359;;2;507,5;520,625;;0
  634;C;GCO_1;284;2;428,75;428,75;;2;144,375;157,5;;0
  635;C;GCO_1;285;2;481,25;481,25;;2;301,875;315;;0
  636;C;GCO_1;286;2;372,632831844295;354,375;;2;449,526153563395;428,75;;0
  637;C;GCO_2;286;2;378,408834648524;396,66666649282;;2;456,098846436605;476,875;;1
  638;C;GCO_1;287;2;294,328739658193;288,75;;2;72,075461481164;96,25;;0
  639;C;GCO_2;287;2;296,296260341807;301,875;;2;63,549538518836;39,375;;1
  640;C;GCO_1;348;2;725,028881161541;724,06250026077;;2;1319,35997954376;1316,875;;0
  641;C;GCO_2;348;2;728,200285852819;729,16666675359;;2;1327,51502045624;1330;;1
  642;C;GCO_1;349;2;743,228930632342;743,74999973923;;2;1297,19245189687;1286,25;;0
  643;C;GCO_2;349;2;742,812735599708;742,29166649282;;2;1305,93254810313;1316,875;;1
  644;C;GCO_1;350;2;760,850283832128;755,41666649282;;2;1337,40947814982;1330;;0
  645;C;GCO_2;350;2;766,024715907102;771,45833324641;;2;1344,46552185018;1351,875;;1
  646;C;GCO_1;351;2;755,132260413266;752,5;;2;1303,79840345242;1286,25;;0
  647;C;GCO_2;351;2;756,430239325964;759,06249973923;;2;1312,45159654758;1330;;1
  648;C;GCO_1;352;2;719,332354542145;726,25;;2;1173,32827837018;1163,75;;0
  649;C;GCO_2;352;2;714,209312211445;707,29166675359;;2;1180,42172162982;1190;;1
  650;C;GCO_1;353;2;761,337311153199;783,124999895692;;2;1134,3193174597;1111,25;;0
  651;C;GCO_2;353;2;755,329355235313;733,54166649282;;2;1140,6806825403;1163,75;;1
  652;C;GCO_1;354;2;701,45833324641;701,45833324641;;2;1176,875;1190;;0
  653;C;GCO_1;355;3;772,83648948157;791,874999687076;791,874999687076;3;1150,6734034562;1111,25;1111,25;0
  654;C;GCO_2;355;3;771,53851051843;765,625;765,625;3;1159,3265965438;1198,75;1198,75;1
  655;C;GCO_3;355;3;767,860903456201;768,54166675359;768,54166675359;3;1154,35101051843;1159,375;1159,375;2
  656;C;GCO_1;356;2;529,375;529,375;;2;1220,625;1233,75;;0
  657;C;GCO_1;357;2;746,66666675359;746,66666675359;;2;1168,125;1181,25;;0
  658;C;GCO_1;358;2;567,29166675359;567,29166675359;;2;1391,25;1404,375;;0
  659;C;GCO_1;359;2;707,29166675359;707,29166675359;;2;1522,5;1535,625;;0
  660;C;GCO_1;360;2;618,33333324641;618,33333324641;;2;1435;1448,125;;0
  661;C;GCO_1;361;2;786,04166675359;786,04166675359;;2;1391,25;1404,375;;0
  662;C;GCO_1;362;2;557,08333324641;557,08333324641;;2;1098,125;1111,25;;0
  663;C;GCO_1;363;2;672,29166675359;672,29166675359;;2;1478,75;1491,875;;0
  664;C;GCO_1;364;2;695,625;695,625;;2;1050;1063,125;;0
  665;C;GCO_1;365;2;529,375;529,375;;2;1172,5;1185,625;;0
  666;C;GCO_1;366;2;697,08333324641;697,08333324641;;2;1115,625;1128,75;;0
  667;C;GCO_1;367;3;638,519059480312;683,374999374151;683,374999374151;3;1155,46188103938;1102,5;1102,5;0
  668;C;GCO_2;367;3;634,605940519688;608,125;608,125;3;1163,28811896062;1216,25;1216,25;1
  669;C;GCO_3;367;3;632,649381039375;616,875;616,875;3;1157,41844051969;1159,375;1159,375;2
  670;C;GCO_1;368;3;638,519059480312;658,875000208616;658,875000208616;3;1155,46188103938;1102,5;1102,5;0
  671;C;GCO_2;368;3;634,605940519688;588,4375;588,4375;3;1163,28811896062;1216,25;1216,25;1
  672;C;GCO_3;368;2;632,649381039375;625,625;;2;1157,41844051969;1159,375;;2
  673;C;GCO_1;369;3;638,519059480312;671,124999791384;671,124999791384;3;1155,46188103938;1102,5;1102,5;0
  674;C;GCO_2;369;3;634,605940519688;627,8125;627,8125;3;1163,28811896062;1216,25;1216,25;1
  675;C;GCO_3;369;3;632,649381039375;630;630;3;1157,41844051969;1163,75;1163,75;2
  676;C;GCO_1;370;3;618,819673485589;649,687500521541;649,687500521541;3;1086,43727773412;1102,5;1102,5;0
  677;C;GCO_2;370;3;610,555326514411;564,375;564,375;3;1083,56272226588;1067,5;1067,5;1
  678;C;GCO_3;370;3;616,124777734118;608,125;608,125;3;1080,86782651441;1085;1085;2
  679;C;GCO_1;371;3;651,841215710622;646,625000625849;646,625000625849;3;1100,85515196383;1102,5;1102,5;0
  680;C;GCO_2;371;3;643,158784289378;630;630;3;1099,76984803617;1098,125;1098,125;1
  681;C;GCO_3;371;3;648,042651963828;625,625;625,625;3;1095,97128428938;1111,25;1111,25;2
  682;C;GCO_1;372;2;615,625;595;;2;1264,375;1312,5;;0
  683;C;GCO_2;372;2;615,625;636,25;;2;1264,375;1216,25;;1
  684;C;GCO_1;373;2;564,009157329649;564,375;;2;1098,14011230589;1093,75;;0
  685;C;GCO_2;373;2;563,282509423942;562,91666675359;;2;1106,85988769411;1111,25;;1
  686;C;GCO_1;374;2;599,322186239387;593,124999552965;;2;1396,33979396582;1386,875;;0
  687;C;GCO_2;374;2;604,115313313578;610,3125;;2;1403,66020603418;1413,125;;1
  688;C;GCO_1;375;2;614,016372511856;608,125;;2;1463,71980959021;1448,125;;0
  689;C;GCO_2;375;2;617,108627488144;623;;2;1471,90519040979;1487,5;;1
  690;C;GCO_1;376;2;707,291666910052;710,20833350718;;2;1115,625;1115,625;;1
  691;C;GCO_2;376;2;716,041666910052;713,125000312924;;2;1115,625;1115,625;;0
  692;C;GCO_1;377;2;590,734530277397;583,124999254942;;2;1396,55985731509;1386,875;;0
  693;C;GCO_2;377;2;596,140468977545;603,75;;2;1403,44014268491;1413,125;;1
  694;C;GCO_1;378;2;568,32296746035;564,375;;2;1365,36069413927;1356,25;;0
  695;C;GCO_2;378;2;571,80203253965;575,75;;2;1373,38930586073;1382,5;;1
  696;C;GCO_1;379;2;557,07772014586;560;;2;1235,69818660813;1233,75;;0
  697;C;GCO_2;379;2;549,797280114911;546,87500026077;;2;1240,55181339187;1242,5;;1
  698;C;GCO_1;380;2;727,345009293556;726,25;;2;1128,76511230589;1115,625;;0
  699;C;GCO_2;380;2;728,071657199264;729,16666649282;;2;1137,48488769411;1150,625;;1
  700;C;GCO_1;381;2;716,135510589905;721,875000104308;;2;1106,23310802663;1115,625;;0
  701;C;GCO_2;381;2;711,572823021583;705,83333350718;;2;1098,76689197337;1089,375;;1
  702;C;GCO_1;382;2;566,487663114372;568,75;;2;1389,28701057598;1382,5;;0
  703;C;GCO_2;382;2;563,720670132038;561,45833324641;;2;1397,58798942402;1404,375;;1
  704;C;GCO_1;383;2;699,345670072665;698,54166649282;;2;1118,03701059577;1115,625;;0
  705;C;GCO_2;383;2;702,112663173745;702,91666675359;;2;1126,33798940423;1128,75;;1
  706;C;GCO_1;384;2;654,976176627425;651,875;;2;1488,43035299377;1487,5;;0
  707;C;GCO_2;384;2;663,357156618985;666,45833324641;;2;1490,94464700623;1491,875;;1
  708;C;GCO_1;385;2;529,37499973923;529,37499973923;;2;1242,5;1242,5;;0
  709;C;GCO_2;385;2;529,375;529,375;;2;1233,75;1233,75;;1
  710;C;GCO_1;386;2;629,500540316517;633,125000745058;;2;1402,30344552404;1386,875;;0
  711;C;GCO_2;386;2;627,499460637158;623,875000208616;;2;1410,82155447596;1426,25;;1
  712;C;GCO_1;387;2;618,601536273042;623,125000447035;;2;1402,36294822786;1386,875;;0
  713;C;GCO_2;387;2;616,148464799842;611,625000625849;;2;1410,76205177214;1426,25;;1
  714;C;GCO_1;388;2;551,67703253965;555,625;;2;1365,36069413927;1356,25;;0
...


$$IntGrfnet;FID(a:40);OP(a:1);loc_name(a:80);fold_id(p);snap_on(i);ortho_on(i);pDataFolder(p)
  846;C;SPTL(3);;1;1;70
  847;C;SPTL;;1;1;70


$$StaCubic;FID(a:40);OP(a:1);loc_name(a:80);fold_id(p);obj_bus(i);obj_id(p);it2p1(i);it2p2(i);it2p3(i)
  848;C;WTG_AFTO0G_1;71;0;30;0;1;2
  849;C;trf_BLAH3A_AFTO0G_1;71;1;138;0;1;2
  850;C;lne_BLAH1-_DUNH1Q_1;72;0;53;0;1;2
  851;C;lne_BLAH1-_DUNH1R_1;72;0;54;0;1;2
  852;C;lne_BLAH1-_GLGL1Q_1;72;0;43;0;1;2
  853;C;lne_BLAH1-_GLGL1R_1;72;0;45;0;1;2
  854;C;trf_BLAH1-_BLAH3A_1;72;0;134;0;1;2
  855;C;trf_BLAH1-_BLAH3A_2;72;0;135;0;1;2
  856;C;trf_BLAH1-_BLAH3B_1;72;0;136;0;1;2
  857;C;trf_BLAH1-_BLAH3B_2;72;0;137;0;1;2
  858;C;Cable_BLAH3A_1;73;0;;0;1;2
  859;C;Cable_BLAH3A_2;73;0;;0;1;2
  860;C;lne_BLAH3A_WNDR3-_1;73;0;55;0;1;2
  861;C;lnec_BLAH3A_1;73;0;;0;1;2
  862;C;trf_BLAH1-_BLAH3A_1;73;1;134;0;1;2
  863;C;trf_BLAH1-_BLAH3A_2;73;1;135;0;1;2
  864;C;trf_BLAH3A_AFTO0G_1;73;0;138;0;1;2
  865;C;lnec_BLAH3B_1;74;0;;0;1;2
  866;C;trf_BLAH1-_BLAH3B_1;74;1;136;0;1;2
  867;C;trf_BLAH1-_BLAH3B_2;74;1;137;0;1;2
  868;C;lne_BLCW1-_MARG1-_1;75;0;47;0;1;2
  869;C;trf_BLCW1-_BLCW3-_1;75;0;139;0;1;2
  870;C;lne_BLCW3-_BLKS3-_1;76;0;56;0;1;2
  871;C;lnec_BLCW3-_1;76;0;;0;1;2
  872;C;trf_BLCW1-_BLCW3-_1;76;1;139;0;1;2
  873;C;WTG_BLKS0G_1;77;0;31;0;1;2
  874;C;trf_BLKS3-_BLKS0G_1;77;1;140;0;1;2
  875;C;Cable_BLKS3-_1;78;0;;0;1;2
  876;C;lne_BLCW3-_BLKS3-_1;78;1;56;0;1;2
  877;C;trf_BLKS3-_BLKS0G_1;78;0;140;0;1;2
  878;C;WTG_DESA0G_1;79;0;32;0;1;2
  879;C;trf_DESA3-_DESA0G_1;79;1;142;0;1;2
  880;C;lne_DESA1Q_NECU1-_1;80;0;51;0;1;2
  881;C;trf_DESA1Q_DESA3-_1;80;0;141;0;1;2
  882;C;Cable_DESA3-_1;81;0;;0;1;2
  883;C;lnec_DESA3-_1;81;0;;0;1;2
  884;C;trf_DESA1Q_DESA3-_1;81;1;141;0;1;2
  885;C;trf_DESA3-_DESA0G_1;81;0;142;0;1;2
  886;C;WTG_DUNH0G_1;82;0;33;0;1;2
  887;C;trf_DUNH3-_DUNH0G_1;82;1;145;0;1;2
  888;C;lne_BLAH1-_DUNH1Q_1;83;1;53;0;1;2
  889;C;lne_DUNH1Q_DUNH1S_1;83;0;57;0;1;2
  890;C;lne_DUNH1Q_NECU1-_1;83;0;58;0;1;2
  891;C;lne_BLAH1-_DUNH1R_1;84;1;54;0;1;2
  892;C;lne_DUNH1R_DUNH1T_1;84;0;59;0;1;2
  893;C;lne_DUNH1R_NECU1-_1;84;0;60;0;1;2
  894;C;lne_DUNH1Q_DUNH1S_1;85;1;57;0;1;2
  895;C;trf_DUNH1S_DUNH3-_1;85;0;143;0;1;2
  896;C;lne_DUNH1R_DUNH1T_1;86;1;59;0;1;2
  897;C;trf_DUNH1T_DUNH3-_1;86;0;144;0;1;2
  898;C;Cable_DUNH3-_1;87;0;;0;1;2
  899;C;Cable_DUNH3-_2;87;0;;0;1;2
  900;C;lnec_DUNH3-_1;87;0;;0;1;2
  901;C;trf_DUNH1S_DUNH3-_1;87;1;143;0;1;2
  902;C;trf_DUNH1T_DUNH3-_1;87;1;144;0;1;2
  903;C;trf_DUNH3-_DUNH0G_1;87;0;145;0;1;2
  904;C;WTG_ENHI0G_1;88;0;34;0;1;2
  905;C;trf_ENHI3-_ENHI0G_1;88;1;147;0;1;2
  906;C;lne_NECU1C_ENHI1-_1;89;0;61;0;1;2
  907;C;trf_ENHI1-_ENHI3-_1;89;0;146;0;1;2
  908;C;Cable_ENHI3-;90;0;;0;1;2
  909;C;Cable_ENHI3-_1;90;0;;0;1;2
  910;C;lnec_ENHI3-_1;90;0;;0;1;2
  911;C;trf_ENHI1-_ENHI3-_1;90;1;146;0;1;2
  912;C;trf_ENHI3-_ENHI0G_1;90;0;147;0;1;2
  913;C;lne_BLAH1-_GLGL1Q_2;91;1;44;0;1;2
  914;C;lne_GLGL1Q_SAKN1-_1;91;0;62;0;1;2
  915;C;trf_GLGL1Q_GLGL3-_1;91;0;148;0;1;2
  916;C;lne_BLAH1-_GLGL1R_2;92;1;46;0;1;2
  917;C;trf_GLGL1R_GLGL3-_1;92;0;149;0;1;2
  918;C;lne_GLGL3-_SNQR3-_1;93;0;63;0;1;2
  919;C;lne_GLGL3-_TWEN3-_1;93;0;64;0;1;2
  920;C;lne_GLGL3-_WHLL3-_1;93;0;65;0;1;2
  921;C;lnec_GLGL3-_1;93;0;;0;1;2
  922;C;trf_GLGL1Q_GLGL3-_1;93;1;148;0;1;2
  923;C;trf_GLGL1R_GLGL3-_1;93;1;149;0;1;2
  924;C;Cub_1;94;0;168;0;1;2
  925;C;lne_DESA1Q_NECU1-_2;94;1;52;0;1;2
  926;C;lne_DUNH1Q_NECU1-_1;94;1;58;0;1;2
  927;C;lne_DUNH1R_NECU1-_1;94;1;60;0;1;2
  928;C;lne_ENHI1-_NECU1C_1;94;1;61;0;1;2
  929;C;lne_NECU1-_SOKY1-_1;94;0;66;0;1;2
  930;C;lne_NECU1C_NOKY1-_1;94;0;67;0;1;2
  931;C;tr3_NECU2-_NECU1-_1;94;1;163;0;1;2
  932;C;tr3_NECU2-_NECU1-_2;94;1;164;0;1;2
  933;C;tr3_NECU2-_NECU1-_3;94;1;165;0;1;2
  934;C;lne_KEOO1Q_NECU1Q_1;95;1;49;0;1;2
  935;C;tr3_NECU2-_NECU1Q_1;95;1;166;0;1;2
  936;C;tr3_NECU2-_NECU1R_1;96;1;167;0;1;2
  937;C;tr3_NECU2-_NECU1-_1;97;0;163;0;1;2
  938;C;tr3_NECU2-_NECU1-_2;97;0;164;0;1;2
  939;C;tr3_NECU2-_NECU1-_3;97;0;165;0;1;2
  940;C;tr3_NECU2-_NECU1Q_1;97;0;166;0;1;2
  941;C;tr3_NECU2-_NECU1R_1;97;0;167;0;1;2
  942;C;tr3_NECU2-_NECU1Q_1;98;2;166;0;1;2
  943;C;tr3_NECU2-_NECU1R_1;99;2;167;0;1;2
  944;C;tr3_NECU2-_NECU1-_1;100;2;163;0;1;2
  945;C;tr3_NECU2-_NECU1-_2;101;2;164;0;1;2
  946;C;tr3_NECU2-_NECU1-_3;102;2;165;0;1;2
  947;C;WTG_NOKY0A_1;103;0;35;0;1;2
  948;C;trf_NOKY3A_NOKY0A_1;103;1;152;0;1;2
  949;C;WTG_NOKY0B_1;104;0;36;0;1;2
  950;C;trf_NOKY3B_NOKY0B_1;104;1;153;0;1;2
  951;C;lne_NECU1C_NOKY1-_1;105;1;67;0;1;2
  952;C;trf_NOKY1-_NOKY3A_1;105;0;150;0;1;2
  953;C;trf_NOKY1-_NOKY3B_1;105;0;151;0;1;2
  954;C;Cable_NOKY3A;106;0;;0;1;2
  955;C;Cable_NOKY3A_1;106;0;;0;1;2
  956;C;lnec_NOKY1A_NOKY3A_1;106;0;;0;1;2
  957;C;trf_NOKY1-_NOKY3A_1;106;1;150;0;1;2
  958;C;trf_NOKY3A_NOKY0A_1;106;0;152;0;1;2
  959;C;Cable_NOKY3B;107;0;;0;1;2
  960;C;Cable_NOKY3B_1;107;0;;0;1;2
  961;C;lnec_NOKY1B_NOKY3B_1;107;0;;0;1;2
  962;C;trf_NOKY1-_NOKY3B_1;107;1;151;0;1;2
  963;C;trf_NOKY3B_NOKY0B_1;107;0;153;0;1;2
  964;C;WTG_SAKN0G_1;108;0;37;0;1;2
  965;C;trf_SAKN3-_SAKN0G_1;108;1;155;0;1;2
  966;C;lne_GLGL1Q_SAKN1-_1;109;1;62;0;1;2
  967;C;trf_SAKN1-_SAKN3-_1;109;0;154;0;1;2
  968;C;Cable_SAKN3-_1;110;0;;0;1;2
  969;C;lnec_SAKN3-_1;110;0;;0;1;2
  970;C;trf_SAKN1-_SAKN3-_1;110;1;154;0;1;2
  971;C;trf_SAKN3-_SAKN0G_1;110;0;155;0;1;2
  972;C;WTG_SNQR0G_1;111;0;38;0;1;2
  973;C;trf_SNQR3-_SNQR0G_1;111;1;156;0;1;2
  974;C;Cable_SNQR3-_1;112;0;;0;1;2
  975;C;lne_GLGL3-_SNQR3-_1;112;1;63;0;1;2
  976;C;trf_SNQR3-_SNQR0G_1;112;0;156;0;1;2
  977;C;WTG_SOKY0G_1;113;0;39;0;1;2
  978;C;trf_SOKY3-_SOKY0G_1;113;1;159;0;1;2
  979;C;lne_NECU1C_SOKY1-_1;114;1;66;0;1;2
  980;C;trf_SOKY1-_SOKY3-_1;114;0;157;0;1;2
  981;C;trf_SOKY1-_SOKY3-_2;114;0;158;0;1;2
  982;C;Cable_SOKY3-_1;115;0;;0;1;2
  983;C;WTG_SOKY1-_1;115;0;159;0;1;2
  984;C;lnec_SOKY1-_SOKY3-_1;115;0;;0;1;2
  985;C;lnec_SOKY1-_SOKY3-_2;115;0;;0;1;2
  986;C;trf_SOKY1-_SOKY3-_1;115;1;157;0;1;2
  987;C;trf_SOKY1-_SOKY3-_2;115;1;158;0;1;2
  988;C;WTG_TWEN3-_1;116;0;40;0;1;2
  989;C;trf_TWEN3-_TWEN0G_1;116;1;160;0;1;2
  990;C;Cable_TWEN3-_1;117;0;;0;1;2
  991;C;lne_GLGL3-_TWEN3-_1;117;1;64;0;1;2
  992;C;trf_TWEN3-_TWEN0G_1;117;0;160;0;1;2
  993;C;WTG_WHLL0G_1;118;0;41;0;1;2
  994;C;trf_WHLL3-_WHLL0G_1;118;1;161;0;1;2
  995;C;Cable_WHLL3-_1;119;0;;0;1;2
  996;C;lne_GLGL3-_WHLL3-_1;119;1;65;0;1;2
  997;C;trf_WHLL3-_WHLL0G_1;119;0;161;0;1;2
  998;C;WTG_WNDR0G_1;120;0;42;0;1;2
  999;C;trf_WNDR3-_WNDR0G_1;120;1;162;0;1;2
  1000;C;lne_BLAH3A_WNDR3-_1;121;1;55;0;1;2
  1001;C;trf_WNDR3-_WNDR0G_1;121;0;162;0;1;2
  1002;C;lne_BLAH1-_GLGL1Q_1;122;1;43;0;1;2
  1003;C;lne_BLAH1-_GLGL1Q_2;122;0;44;0;1;2
  1004;C;lne_BLAH1-_GLGL1R_1;123;1;45;0;1;2
  1005;C;lne_BLAH1-_GLGL1R_2;123;0;46;0;1;2
  1006;C;lne_KEOO1Q_MARG1Q_1;124;0;48;0;1;2
  1007;C;lne_KEOO1Q_NECU1Q_1;124;0;49;0;1;2
  1008;C;lne_BLCW1-_MARG1-_1;125;1;47;0;1;2
  1009;C;lne_MARG1Q_MARG1-_1;125;1;50;0;1;2
  1010;C;lne_KEOO1Q_MARG1Q_1;126;1;48;0;1;2
  1011;C;lne_MARG1Q_MARG1-_1;126;0;50;0;1;2
  1012;C;lne_DESA1Q_NECU1-_1;127;1;51;0;1;2
  1013;C;lne_DESA1Q_NECU1-_2;127;0;52;0;1;2


$$StaSwitch;FID(a:40);OP(a:1);loc_name(a:80);fold_id(p);on_off(i);typ_id(p);aUsage(a)
  1014;C;Switch;850;1;;cbk
  1015;C;Switch;851;1;;cbk
  1016;C;Switch;852;1;;cbk
  1017;C;Switch;853;1;;cbk
  1018;C;Switch;854;1;;cbk
  1019;C;Switch;855;1;;cbk
  1020;C;Switch;856;1;;cbk
  1021;C;Switch;857;1;;cbk
  1022;C;Switch;859;1;;cbk
  1023;C;Switch;860;1;;cbk
  1024;C;Switch;861;1;;cbk
  1025;C;Switch;862;1;;cbk
  1026;C;Switch;863;1;;cbk
  1027;C;Switch;864;1;;cbk
  1028;C;Switch;865;1;;cbk
  1029;C;Switch;866;1;;cbk
  1030;C;Switch;867;1;;cbk
  1031;C;Switch;900;1;;cbk
  1032;C;Switch;901;1;;cbk
  1033;C;Switch;902;1;;cbk
  1034;C;Switch;903;1;;cbk
  1035;C;Switch;909;1;;cbk
  1036;C;Switch;911;1;;cbk
  1037;C;Switch;912;1;;cbk
  1038;C;Switch;918;1;;cbk
  1039;C;Switch;919;1;;cbk
  1040;C;Switch;920;1;;cbk
  1041;C;Switch;921;1;;cbk
  1042;C;Switch;922;1;;cbk
  1043;C;Switch;923;1;;cbk
  1044;C;Switch;924;1;;cbk
  1045;C;Switch;925;1;;cbk
  1046;C;Switch;926;1;;cbk
  1047;C;Switch;927;1;;cbk
  1048;C;Switch;928;1;;cbk
  1049;C;Switch;929;1;;cbk
  1050;C;Switch;930;1;;cbk
  1051;C;Switch;931;1;;cbk
  1052;C;Switch;932;1;;cbk
  1053;C;Switch;933;1;;cbk
  1054;C;Switch;934;1;;cbk
  1055;C;Switch;937;1;;cbk
  1056;C;Switch;938;1;;cbk
  1057;C;Switch;939;1;;cbk
  1058;C;Switch;940;1;;cbk
  1059;C;Switch;941;1;;cbk
  1060;C;Switch;955;1;;cbk
  1061;C;Switch;956;1;;cbk
  1062;C;Switch;957;1;;cbk
  1063;C;Switch;958;1;;cbk
  1064;C;Switch;960;1;;cbk
  1065;C;Switch;961;1;;cbk
  1066;C;Switch;962;1;;cbk
  1067;C;Switch;963;1;;cbk
  1068;C;Switch;966;1;;cbk
  1069;C;Switch;967;1;;cbk
  1070;C;Switch;968;1;;cbk
  1071;C;Switch;979;1;;cbk
  1072;C;Switch;980;1;;cbk
  1073;C;Switch;981;1;;cbk
  1074;C;Switch;983;1;;cbk
  1075;C;Switch;984;1;;cbk
  1076;C;Switch;985;1;;cbk
  1077;C;Switch;986;1;;cbk
  1078;C;Switch;987;1;;cbk
  1079;C;Switch;1001;1;;cbk


$$TypCon;FID(a:40);OP(a:1);loc_name(a:80);fold_id(p);sline(r);ncsub(i);dsubc(r);rpha(r);diaco(r);erpha(r);diatub(r);iskin(i);tmax(r);uline(r);iopt_inp(a:6);alpha(r);rpha_tmax(r);mlei(a:20);iModel(i)
  1080;C;Poplar 200 AAAC(EHC) Single 132kV 75C;174;0,73;1;0,1;0,13;20,09;7,71235;16;1;75;132;alf;0,00393;0,12742;Al;0
  1081;C;Totara 425 AAAC(HC) Single 132kV 75C;174;1,3;1;0;0,0639;28,98;11,12513;7,08;1;50;132;mat;0,00393;0,06757;Al;0
  1082;C;UPAS 300 AAAC(EHC) Single 132kV 50C;174;0,855;1;0,3;0,0859;24,71;9,485922;9,54;1;50;132;mat;0,00393;0,06757;Al;0
  1083;C;UPAS 300 AAAC(HC) Twin 132kV 75C;174;2,108203;2;0,1;0,08789;24,71;9,485922;16;1;50;132;alf;0,00393;0,06264;Al;0
  1084;C;Lynx 175 ASCR Single(E);175;99,99;1;0,3;0,1576;19,53;8,069307;8,37;1;50;275;mat;0;0,1489;Al;1
  1085;C;OPGW Horse Single(E);175;99,99;1;0,1;0,3705;13,98;5,988874;8,37;1;50;275;mat;0;0,06392;Al;1
  1086;C;Keziah 160 AACSR Single;175;99,99;1;0,1;0,1644;19,53;8,069307;8,37;1;50;400;mat;0;0,16486;Al;1
  1087;C;Rubus 500 AAAC(HC) Single 275kV 75C;197;1,45;1;0,3;0,05435;31,5;12,16042;16;1;75;275;mat;0,00393;0,05316;Al;0


$$TypLne;FID(a:40);OP(a:1);loc_name(a:80);fold_id(p);uline(r);sline(r);InomAir(r);cohl_(i);rline(r);xline(r);rline0(r);xline0(r);Ithr(r);tmax(r);rtemp(r);systp(i);nlnph(i);nneutral(i);frnom(r);mlei(a:4);bline(r);bline0(r)
  1088;C;1200mm2 132kV XLPE Al Trefoil (Nexans);178;132;0,579974;1;0;0,0345;0,158;0,118;0,062;0;80;80;0;3;0;50;Al;80,11061;80,11061
  1089;C;1600mm2 132kV XLPE Al Trefoil (Nexans);178;132;1,055;1;0;0,0274;0,15;0,094;0,059;0;80;80;0;3;0;50;Al;94,56194;94,56194
  1090;C;2000 mm2 132kV XLPE Cu/Cu Tr (Sudkabel);178;132;1,315;1;0;0,015712;0,145058;0,159148;0,544855;0;80;80;0;3;0;50;Cu;107,4425;107,4425
  1091;C;800mm2 132kV XLPE Al single core;178;132;0,532;1;0;0,0492;0,113097;0,1592;0,070565;0;80;80;0;3;0;50;Al;75,39822;75,39822
  1092;C;800mm2 132kV XLPE Al single core_225pF;178;132;0,79;1;0;0,0492;0,113097;0,1592;0,070565;0;80;80;0;3;0;50;Al;70,68584;70,68584
  1093;C;500 mm2 33kV XLPE Al Trefoil;179;33;1;1;0;0,057955;0,098757;0,205254;1,786713;0;80;80;0;3;0;50;Al;97,78144;97,78144
  1094;C;630 mm2 33kV XLPE Cu Trefoil Duct;179;33;1;1;0;0,030131;0,143485;0,177444;1,673288;0;80;80;0;3;0;50;Al;107,762;107,762
  1095;C;500 mm2 33kV XLPE Cu Tr;180;33;0,6648;1;0;0,0366;0,11;0,401;0,053;0;80;80;0;3;0;50;Cu;94,87609;94,87609
  1096;C;630 mm2 33kV XLPE Cu Tr;181;33;0,61;1,05;0;0,030131;0,095221;0,17743;1,769832;0;80;80;0;3;0;50;Cu;107,762;107,762
  1097;C;tline_NECU1-_SOKY1-_1;182;132;1,055;1;0;0,019;0,101;0,098;0,05;0;80;80;0;3;0;50;Al;99,27433;99,27433
  1098;C;tlne_DUNH1Q_DUNH1S_1;182;132;0,581724;1;0;0,08712;0,191664;0,08712;0,17424;0;80;80;0;3;0;50;Cu;47,12389;0
  1099;C;tlne_DUNH1R_DUNH1T_1;182;132;0,581724;1;0;0,08712;0,191664;0,08712;0,17424;0;80;80;0;3;0;50;Cu;47,12389;0


$$TypTow;FID(a:40);OP(a:1);loc_name(a:80);fold_id(p);frnom(r);nlear(i);nlcir(i);gearth(r);i_mode(i);pcond_e:SIZEROW(i);pcond_e:0(p);pcond_e:1(p);nphas:SIZEROW(i);nphas:0(r);nphas:1(r);ktrto:SIZEROW(i);ktrto:0(r);ktrto:1(r);pcond_c:SIZEROW(i);pcond_c:0(p);pcond_c:1(p);xy_e:SIZEROW(i);xy_e:SIZECOL(i);xy_e:0:0(r);xy_e:0:1(r);xy_e:1:0(r);xy_e:1:1(r);xy_c:SIZEROW(i);xy_c:SIZECOL(i);xy_c:0:0(r);xy_c:0:1(r);xy_c:0:2(r);xy_c:0:3(r);xy_c:0:4(r);xy_c:0:5(r);xy_c:1:0(r);xy_c:1:1(r);xy_c:1:2(r);xy_c:1:3(r);xy_c:1:4(r);xy_c:1:5(r);R_c0:SIZEROW(i);R_c0:SIZECOL(i);R_c0:0:0(r);R_c0:0:1(r);R_c0:1:0(r);R_c0:1:1(r);X_c0:SIZEROW(i);X_c0:SIZECOL(i);X_c0:0:0(r);X_c0:0:1(r);X_c0:1:0(r);X_c0:1:1(r);R_c1:SIZEROW(i);R_c1:SIZECOL(i);R_c1:0:0(r);R_c1:0:1(r);R_c1:1:0(r);R_c1:1:1(r);X_c1:SIZEROW(i);X_c1:SIZECOL(i);X_c1:0:0(r);X_c1:0:1(r);X_c1:1:0(r);X_c1:1:1(r);B_c0:SIZEROW(i);B_c0:SIZECOL(i);B_c0:0:0(r);B_c0:0:1(r);B_c0:1:0(r);B_c0:1:1(r);B_c1:SIZEROW(i);B_c1:SIZECOL(i);B_c1:0:0(r);B_c1:0:1(r);B_c1:1:0(r);B_c1:1:1(r);G_c0:SIZEROW(i);G_c0:SIZECOL(i);G_c0:0:0(r);G_c0:0:1(r);G_c0:1:0(r);G_c0:1:1(r);G_c1:SIZEROW(i);G_c1:SIZECOL(i);G_c1:0:0(r);G_c1:0:1(r);G_c1:1:0(r);G_c1:1:1(r)
  1100;C;L7 132kV DC (Totara - Single HC) 75C;194;50;1;2;500;0;1;1084;;2;3;3;2;0;0;2;1081;1081;1;2;0;22,59;;;2;6;3,12;4,7;3,48;18,48;14,06;10,35;-3,12;-4,7;-3,48;18,48;14,06;10,35;2;2;0,18375079081355;0,11838434658299;0,11838434658299;0,18375079081355;2;2;0,9547600370663;0,47376282044183;0,47376282044183;0,9547600370663;2;2;0,06570062891972;0,00038688280932;0,00038688280932;0,06570062891972;2;2;0,38612815415474;0,01406458526376;0,01406458526376;0,38612815415474;2;2;1,87541218168806;-0,53314832145042;-0,53314832145042;1,87541218168806;2;2;3,01347950788751;-0,08794370344288;-0,08794370344288;3,01347950788751;2;2;0;0;0;0;2;2;-5,55111512312578e-17;-1,90819582357449e-17;-2,08166817117217e-17;-2,77555756156289e-17
  1101;C;L7/2U 132kV DC (UPAS - TwinHC) 75C;194;50;1;2;500;0;1;1084;;2;3;3;2;0;0;2;1083;1083;1;2;0;24,27;;;2;6;3,12;4,7;3,48;20,06;15,64;11,93;-3,12;-4,7;-3,48;20,06;15,64;11,93;2;2;0,16238447855574;0,11787042185120;0,11787042185120;0,16238447855574;2;2;0,89285226129690;0,47570104530662;0,47570104530662;0,89285226129690;2;2;0,04484252103826;0,00037867494692;0,00037867494692;0,04484252103826;2;2;0,32230279721030;0,01408543669580;0,01408543669580;0,32230279721030;2;2;2,06123376997657;-0,6757727620157;-0,6757727620157;2,06123376997657;2;2;3,55816227445307;-0,12350919493916;-0,12350919493916;3,55816227445308;2;2;0;0;0;0;2;2;4,16333634234434e-17;1,21430643318376e-17;-2,94902990916057e-17;5,55111512312578e-17
  1102;C;Trident 132kV SC (Poplar - SingleEHC)75C;194;50;0;1;500;0;0;;;1;3;;1;0;;1;1080;;0;2;;;;;1;6;-2,75;0;2,75;11,49;11,49;11,49;;;;;;;1;1;0,27056744899987;;;;1;1;1,2954378543419;;;;1;1;0,13070899678219;;;;1;1;0,38370410603154;;;;1;1;1,51600569583895;;;;1;1;3,01867225163543;;;;1;1;0;;;;1;1;-5,55111512312578e-17;;;
  1103;C;Trident 132kV SC EW (Poplar - Single)75C;194;50;1;1;500;0;1;1085;;1;3;;1;0;;1;1080;;1;2;1,375;8,74;;;1;6;-2,75;0;2,75;11,49;11,49;11,49;;;;;;;1;1;0,34725573032284;;;;1;1;0,96354599519574;;;;1;1;0,13089656589652;;;;1;1;0,38338829949442;;;;1;1;1,68342945574367;;;;1;1;3,02248500995163;;;;1;1;0;;;;1;1;-5,55111512312578e-17;;;
  1104;C;Trident 132kV SC EW (UPAS - Single) 50C;194;50;1;1;500;0;1;1085;;1;3;;1;0;;1;1082;;1;2;1,375;8,74;;;1;6;-2,75;0;2,75;11,49;11,49;11,49;;;;;;;1;1;0,30351114604273;;;;1;1;0,95048333502395;;;;1;1;0,08715198161642;;;;1;1;0,37032563932263;;;;1;1;1,71776410328693;;;;1;1;3,13544731997324;;;;1;1;0;;;;1;1;-8,32667268468867e-17;;;
  1105;C;L34R 275kV SC (Rubus - Single) 75C;195;50;2;1;500;0;2;1086;1086;1;3;;1;0;;1;1087;;2;2;-6,75;20,3;6,75;20,3;1;6;-9,91;0;9,91;12,7;12,7;12,7;;;;;;;1;1;0,15367454849304;;;;1;1;0,76005372411546;;;;1;1;0,05686386061649;;;;1;1;0,43292634960103;;;;1;1;2,10822259898403;;;;1;1;2,69051936408663;;;;1;1;0;;;;1;1;5,55111512312578e-17;;;


$$TypTr2;FID(a:40);OP(a:1);loc_name(a:80);fold_id(p);nt2ph(i);strn(r);frnom(r);utrn_h(r);utrn_l(r);uktr(r);pcutr(r);uk0tr(r);ur0tr(r);tr2cn_h(a:4);tr2cn_l(a:4);nt2ag(r);curmg(r);pfe(r);zx0hl_n(r);itapch(i);tap_side(i);dutap(r);phitr(r);nntap0(i);ntpmn(i);ntpmx(i);manuf(a:40)
  1106;C;Type_DESA_GRIDT1 (132/33kV);191;3;90;50;132;33;15,15;229,08;14,39566;0,387997;YN;D;0;0,038;28,086;100;0;0;1,66667;180;13;1;19;SGB
  1107;C;Type_DUNH_GRIDT1 (132/33kV);191;3;90;50;132;33;25,46;277,66;24,17355;0,587287;YN;D;0;0,0258;20,697;100;0;0;1,66667;180;13;1;19;SGB Starkstrom
  1108;C;Type_DUNH_GRIDT2 (132/33kV);191;3;90;50;132;33;25,37;283,131;24,17355;0,587287;YN;D;0;0,0303;21,609;100;0;0;1,66667;180;13;1;19;SGB Starkstrom
  1109;C;Type_ENHI_GRIDT1 (133/33kV);191;3;90;50;132;33;15,49;248,09;13,94;0,28;YN;D;0;0,024;20,03;100;0;0;1,67;180;13;1;19;KONCAR
  1110;C;Type_NOKY_GRIDT1A (132/33kV);191;3;120;50;132;33;17,39;320,54;16,44929;0,328916;YN;D;0;0,023;26,52;100;0;0;1,666667;180;13;1;19;Koncar
  1111;C;Type_NOKY_GRIDT1B (133/33kV);191;3;120;50;132;33;17,19;337,56;16,44929;0,328916;YN;D;0;0,024;26,75;100;0;0;1,666667;180;13;1;19;Koncar
  1112;C;Type_SAKN_GRIDT1 (132/33kV);191;3;120;50;132;33;11,93;468;10,54;0,39;YN;D;0;0,027;30,364;100;0;0;1,25;180;0;-12;12;
  1113;C;Type_SOKY_GRIDT1 (132/33kV);191;3;130;50;132;33;14,9;338;14,2;0,26;YN;D;0;0,027;30,364;100;0;0;1,666667;180;0;-9;9;SGB
...